LTspice 24.0.11 for Windows
Circuit: * C:\Git\HP9815_OVP\Simulation\HP9815A_OVP_Sim.asc
Start Time: Sun Aug 24 13:29:59 2025
solver = Normal
Maximum thread count: 32
tnom = 27
temp = 27
method = modified trap
Direct Newton iteration for .op point succeeded.
Total elapsed time: 0.040 seconds.

