LTspice 24.0.11 for Windows
Circuit: * C:\Git\HP9815_OVP\Simulation\HP9815A_OVP_Sim.asc
Start Time: Mon Aug 25 19:20:59 2025
solver = Normal
Maximum thread count: 32
tnom = 27
temp = 27
method = modified trap
WARNING: Specified period is not longer than the sum of Trise, Tfall, and Ton for v3.  Increasing period to 1.11
WARNING: Specified period is not longer than the sum of Trise, Tfall, and Ton for v6.  Increasing period to 1.11
WARNING: Specified period is not longer than the sum of Trise, Tfall, and Ton for v8.  Increasing period to 1.11
WARNING: Less than two connections to node nc_01.  This node is used by v6.
Per .tran options, skipping operating point for transient analysis.
Total elapsed time: 2.743 seconds.

